data/mpower/sp_case300.m
function mpc = sp_case300
% SP_CASE300  Synthetic 300-bus operated grid, generated by the maintainer's case generator
% (seed in the script). Two voltage levels (220 kV and the backbone at
% 380 kV), 3 areas, 411 branches, 69 generator buses
% (0 synchronous condensers), 201 loads with
% 9500 MW / 3146 Mvar. Self-built, no external data, no external license.
%
% Validated in the generator: base case 3 NR iterations, Vmin 0.9568 pu, Vmax
% 1.0269 pu, highest branch loading 76.9 %, 8 generators at a reactive
% limit, slack (bus 156) 149.0 MW, written as that unit's Pg. N-1 over 411 of 411 branches:
% 34 outages island a bus, 1 do not converge. Ratings are sized per
% branch to the base-case flow with 30 percent headroom in the usual classes.

%% MATPOWER Case Format : Version 2
mpc.version = '2';

%%-----  Power Flow Data  -----%%
%% system MVA base
mpc.baseMVA = 100;

%% bus data
%	bus_i	type	Pd	Qd	Gs	Bs	area	Vm	Va	baseKV	zone	Vmax	Vmin
mpc.bus = [
	1	2	0.0	0.0	0.0	0.0	1	1.0	0.0	220.0	1	1.06	0.94;
	2	1	0.0	0.0	0.0	0.0	1	1.0	0.0	220.0	1	1.06	0.94;
	3	1	41.0	15.0	0.0	0.0	1	1.0	0.0	220.0	1	1.06	0.94;
	4	1	65.0	19.0	0.0	0.0	1	1.0	0.0	220.0	1	1.06	0.94;
	5	1	19.0	7.0	0.0	0.0	1	1.0	0.0	220.0	1	1.06	0.94;
	6	2	0.0	0.0	0.0	0.0	1	1.0	0.0	380.0	1	1.06	0.94;
	7	1	18.0	6.0	0.0	0.0	1	1.0	0.0	220.0	1	1.06	0.94;
	8	2	0.0	0.0	0.0	0.0	1	1.0	0.0	220.0	1	1.06	0.94;
	9	1	0.0	0.0	0.0	0.0	1	1.0	0.0	220.0	1	1.06	0.94;
	10	1	33.0	9.0	0.0	0.0	1	1.0	0.0	220.0	1	1.06	0.94;
	11	1	0.0	0.0	0.0	0.0	1	1.0	0.0	220.0	1	1.06	0.94;
	12	1	23.0	7.0	0.0	0.0	1	1.0	0.0	220.0	1	1.06	0.94;
	13	1	51.0	19.0	0.0	0.0	1	1.0	0.0	220.0	1	1.06	0.94;
	14	2	19.0	5.0	0.0	0.0	1	1.0	0.0	220.0	1	1.06	0.94;
	15	1	0.0	0.0	0.0	0.0	1	1.0	0.0	220.0	1	1.06	0.94;
	16	1	47.0	16.0	0.0	0.0	1	1.0	0.0	220.0	1	1.06	0.94;
	17	1	27.0	11.0	0.0	0.0	1	1.0	0.0	220.0	1	1.06	0.94;
	18	1	46.0	16.0	0.0	0.0	1	1.0	0.0	220.0	1	1.06	0.94;
	19	2	0.0	0.0	0.0	0.0	1	1.0	0.0	380.0	1	1.06	0.94;
	20	1	16.0	4.0	0.0	0.0	1	1.0	0.0	220.0	1	1.06	0.94;
	21	2	0.0	0.0	0.0	0.0	1	1.0	0.0	220.0	1	1.06	0.94;
	22	1	9.0	3.0	0.0	0.0	1	1.0	0.0	220.0	1	1.06	0.94;
	23	1	19.0	7.0	0.0	0.0	1	1.0	0.0	220.0	1	1.06	0.94;
	24	1	0.0	0.0	0.0	0.0	1	1.0	0.0	220.0	1	1.06	0.94;
	25	1	62.0	17.0	0.0	0.0	1	1.0	0.0	220.0	1	1.06	0.94;
	26	1	23.0	8.0	0.0	0.0	1	1.0	0.0	220.0	1	1.06	0.94;
	27	2	0.0	0.0	0.0	0.0	1	1.0	0.0	220.0	1	1.06	0.94;
	28	1	32.0	11.0	0.0	0.0	1	1.0	0.0	220.0	1	1.06	0.94;
	29	1	46.0	18.0	0.0	0.0	1	1.0	0.0	220.0	1	1.06	0.94;
	30	1	18.0	7.0	0.0	0.0	1	1.0	0.0	220.0	1	1.06	0.94;
	31	2	0.0	0.0	0.0	0.0	1	1.0	0.0	380.0	1	1.06	0.94;
	32	1	0.0	0.0	0.0	0.0	1	1.0	0.0	220.0	1	1.06	0.94;
	33	1	0.0	0.0	0.0	0.0	1	1.0	0.0	220.0	1	1.06	0.94;
	34	2	0.0	0.0	0.0	0.0	1	1.0	0.0	220.0	1	1.06	0.94;
	35	1	39.0	12.0	0.0	0.0	1	1.0	0.0	220.0	1	1.06	0.94;
	36	1	19.0	6.0	0.0	0.0	1	1.0	0.0	220.0	1	1.06	0.94;
	37	1	41.0	11.0	0.0	0.0	1	1.0	0.0	220.0	1	1.06	0.94;
	38	1	109.0	31.0	0.0	25.0	1	1.0	0.0	220.0	1	1.06	0.94;
	39	1	47.0	12.0	0.0	0.0	1	1.0	0.0	220.0	1	1.06	0.94;
	40	2	0.0	0.0	0.0	0.0	1	1.0	0.0	220.0	1	1.06	0.94;
	41	1	86.0	22.0	0.0	0.0	1	1.0	0.0	220.0	1	1.06	0.94;
	42	1	46.0	12.0	0.0	0.0	1	1.0	0.0	220.0	1	1.06	0.94;
	43	1	54.0	15.0	0.0	0.0	1	1.0	0.0	220.0	1	1.06	0.94;
	44	2	0.0	0.0	0.0	0.0	1	1.0	0.0	380.0	1	1.06	0.94;
	45	1	52.0	14.0	0.0	0.0	1	1.0	0.0	220.0	1	1.06	0.94;
	46	1	48.0	15.0	0.0	0.0	1	1.0	0.0	220.0	1	1.06	0.94;
	47	2	22.0	6.0	0.0	0.0	1	1.0	0.0	220.0	1	1.06	0.94;
	48	1	33.0	12.0	0.0	0.0	1	1.0	0.0	220.0	1	1.06	0.94;
	49	1	30.0	8.0	0.0	0.0	1	1.0	0.0	220.0	1	1.06	0.94;
	50	1	40.0	15.0	0.0	0.0	1	1.0	0.0	220.0	1	1.06	0.94;
	51	1	155.0	49.0	0.0	20.0	1	1.0	0.0	220.0	1	1.06	0.94;
	52	1	46.0	12.0	0.0	0.0	1	1.0	0.0	220.0	1	1.06	0.94;
	53	2	25.0	8.0	0.0	0.0	1	1.0	0.0	220.0	1	1.06	0.94;
	54	1	29.0	11.0	0.0	0.0	1	1.0	0.0	220.0	1	1.06	0.94;
	55	1	19.0	6.0	0.0	0.0	1	1.0	0.0	220.0	1	1.06	0.94;
	56	2	0.0	0.0	0.0	0.0	1	1.0	0.0	380.0	1	1.06	0.94;
	57	1	48.0	17.0	0.0	0.0	1	1.0	0.0	220.0	1	1.06	0.94;
	58	1	40.0	13.0	0.0	0.0	1	1.0	0.0	220.0	1	1.06	0.94;
	59	1	78.0	27.0	0.0	0.0	1	1.0	0.0	220.0	1	1.06	0.94;
	60	2	0.0	0.0	0.0	0.0	1	1.0	0.0	220.0	1	1.06	0.94;
	61	1	22.0	8.0	0.0	0.0	1	1.0	0.0	220.0	1	1.06	0.94;
	62	1	86.0	33.0	0.0	0.0	1	1.0	0.0	220.0	1	1.06	0.94;
	63	1	0.0	0.0	0.0	0.0	1	1.0	0.0	220.0	1	1.06	0.94;
	64	1	63.0	21.0	0.0	0.0	1	1.0	0.0	220.0	1	1.06	0.94;
	65	1	23.0	7.0	0.0	0.0	1	1.0	0.0	220.0	1	1.06	0.94;
	66	2	41.0	12.0	0.0	0.0	1	1.0	0.0	220.0	1	1.06	0.94;
	67	1	44.0	11.0	0.0	0.0	1	1.0	0.0	220.0	1	1.06	0.94;
	68	1	187.0	73.0	0.0	25.0	1	1.0	0.0	220.0	1	1.06	0.94;
	69	2	0.0	0.0	0.0	0.0	1	1.0	0.0	380.0	1	1.06	0.94;
	70	1	26.0	8.0	0.0	0.0	1	1.0	0.0	220.0	1	1.06	0.94;
	71	1	0.0	0.0	0.0	0.0	1	1.0	0.0	220.0	1	1.06	0.94;
	72	1	66.0	26.0	0.0	0.0	1	1.0	0.0	220.0	1	1.06	0.94;
	73	2	15.0	5.0	0.0	0.0	1	1.0	0.0	220.0	1	1.06	0.94;
	74	1	27.0	10.0	0.0	0.0	1	1.0	0.0	220.0	1	1.06	0.94;
	75	1	0.0	0.0	0.0	0.0	1	1.0	0.0	220.0	1	1.06	0.94;
	76	1	119.0	33.0	0.0	25.0	1	1.0	0.0	220.0	1	1.06	0.94;
	77	1	48.0	18.0	0.0	0.0	1	1.0	0.0	220.0	1	1.06	0.94;
	78	1	0.0	0.0	0.0	0.0	1	1.0	0.0	220.0	1	1.06	0.94;
	79	2	0.0	0.0	0.0	0.0	1	1.0	0.0	220.0	1	1.06	0.94;
	80	1	32.0	11.0	0.0	0.0	1	1.0	0.0	220.0	1	1.06	0.94;
	81	2	0.0	0.0	0.0	0.0	1	1.0	0.0	380.0	1	1.06	0.94;
	82	1	15.0	6.0	0.0	0.0	1	1.0	0.0	220.0	1	1.06	0.94;
	83	1	97.0	35.0	0.0	10.0	1	1.0	0.0	220.0	1	1.06	0.94;
	84	1	0.0	0.0	0.0	0.0	1	1.0	0.0	220.0	1	1.06	0.94;
	85	1	60.0	24.0	0.0	0.0	1	1.0	0.0	220.0	1	1.06	0.94;
	86	2	66.0	21.0	0.0	0.0	1	1.0	0.0	220.0	1	1.06	0.94;
	87	1	65.0	25.0	0.0	0.0	1	1.0	0.0	220.0	1	1.06	0.94;
	88	1	56.0	22.0	0.0	0.0	1	1.0	0.0	220.0	1	1.06	0.94;
	89	1	39.0	15.0	0.0	0.0	1	1.0	0.0	220.0	1	1.06	0.94;
	90	1	18.0	5.0	0.0	0.0	1	1.0	0.0	220.0	1	1.06	0.94;
	91	1	35.0	12.0	0.0	0.0	1	1.0	0.0	220.0	1	1.06	0.94;
	92	2	44.0	16.0	0.0	0.0	1	1.0	0.0	220.0	1	1.06	0.94;
	93	1	49.0	19.0	0.0	0.0	1	1.0	0.0	220.0	1	1.06	0.94;
	94	2	0.0	0.0	0.0	0.0	1	1.0	0.0	380.0	1	1.06	0.94;
	95	1	24.0	7.0	0.0	0.0	1	1.0	0.0	220.0	1	1.06	0.94;
	96	1	92.0	34.0	0.0	0.0	1	1.0	0.0	220.0	1	1.06	0.94;
	97	1	58.0	19.0	0.0	0.0	1	1.0	0.0	220.0	1	1.06	0.94;
	98	1	26.0	7.0	0.0	0.0	1	1.0	0.0	220.0	1	1.06	0.94;
	99	2	0.0	0.0	0.0	0.0	1	1.0	0.0	220.0	1	1.06	0.94;
	100	1	73.0	24.0	0.0	0.0	1	1.0	0.0	220.0	1	1.06	0.94;
	101	1	70.0	23.0	0.0	0.0	2	1.0	0.0	220.0	2	1.06	0.94;
	102	1	0.0	0.0	0.0	0.0	2	1.0	0.0	220.0	2	1.06	0.94;
	103	1	0.0	0.0	0.0	0.0	2	1.0	0.0	220.0	2	1.06	0.94;
	104	1	10.0	3.0	0.0	0.0	2	1.0	0.0	220.0	2	1.06	0.94;
	105	2	28.0	9.0	0.0	0.0	2	1.0	0.0	220.0	2	1.06	0.94;
	106	2	0.0	0.0	0.0	0.0	2	1.0	0.0	380.0	2	1.06	0.94;
	107	1	0.0	0.0	0.0	0.0	2	1.0	0.0	220.0	2	1.06	0.94;
	108	1	48.0	15.0	0.0	0.0	2	1.0	0.0	220.0	2	1.06	0.94;
	109	1	55.0	18.0	0.0	0.0	2	1.0	0.0	220.0	2	1.06	0.94;
	110	1	0.0	0.0	0.0	0.0	2	1.0	0.0	220.0	2	1.06	0.94;
	111	1	0.0	0.0	0.0	0.0	2	1.0	0.0	220.0	2	1.06	0.94;
	112	2	30.0	9.0	0.0	0.0	2	1.0	0.0	220.0	2	1.06	0.94;
	113	1	22.0	9.0	0.0	0.0	2	1.0	0.0	220.0	2	1.06	0.94;
	114	1	30.0	12.0	0.0	0.0	2	1.0	0.0	220.0	2	1.06	0.94;
	115	1	0.0	0.0	0.0	0.0	2	1.0	0.0	220.0	2	1.06	0.94;
	116	1	51.0	14.0	0.0	0.0	2	1.0	0.0	220.0	2	1.06	0.94;
	117	1	24.0	7.0	0.0	0.0	2	1.0	0.0	220.0	2	1.06	0.94;
	118	2	0.0	0.0	0.0	0.0	2	1.0	0.0	220.0	2	1.06	0.94;
	119	2	0.0	0.0	0.0	0.0	2	1.0	0.0	380.0	2	1.06	0.94;
	120	1	80.0	22.0	0.0	0.0	2	1.0	0.0	220.0	2	1.06	0.94;
	121	1	9.0	4.0	0.0	0.0	2	1.0	0.0	220.0	2	1.06	0.94;
	122	1	63.0	18.0	0.0	0.0	2	1.0	0.0	220.0	2	1.06	0.94;
	123	1	0.0	0.0	0.0	0.0	2	1.0	0.0	220.0	2	1.06	0.94;
	124	1	11.0	3.0	0.0	0.0	2	1.0	0.0	220.0	2	1.06	0.94;
	125	2	51.0	16.0	0.0	0.0	2	1.0	0.0	220.0	2	1.06	0.94;
	126	1	0.0	0.0	0.0	0.0	2	1.0	0.0	220.0	2	1.06	0.94;
	127	1	64.0	22.0	0.0	0.0	2	1.0	0.0	220.0	2	1.06	0.94;
	128	1	17.0	5.0	0.0	0.0	2	1.0	0.0	220.0	2	1.06	0.94;
	129	1	24.0	9.0	0.0	0.0	2	1.0	0.0	220.0	2	1.06	0.94;
	130	1	0.0	0.0	0.0	0.0	2	1.0	0.0	220.0	2	1.06	0.94;
	131	2	0.0	0.0	0.0	0.0	2	1.0	0.0	380.0	2	1.06	0.94;
	132	2	39.0	10.0	0.0	0.0	2	1.0	0.0	220.0	2	1.06	0.94;
	133	1	63.0	23.0	0.0	0.0	2	1.0	0.0	220.0	2	1.06	0.94;
	134	1	39.0	14.0	0.0	0.0	2	1.0	0.0	220.0	2	1.06	0.94;
	135	1	0.0	0.0	0.0	0.0	2	1.0	0.0	220.0	2	1.06	0.94;
	136	1	43.0	14.0	0.0	0.0	2	1.0	0.0	220.0	2	1.06	0.94;
	137	1	28.0	9.0	0.0	0.0	2	1.0	0.0	220.0	2	1.06	0.94;
	138	2	0.0	0.0	0.0	0.0	2	1.0	0.0	220.0	2	1.06	0.94;
	139	1	46.0	15.0	0.0	0.0	2	1.0	0.0	220.0	2	1.06	0.94;
	140	1	30.0	9.0	0.0	0.0	2	1.0	0.0	220.0	2	1.06	0.94;
	141	1	0.0	0.0	0.0	0.0	2	1.0	0.0	220.0	2	1.06	0.94;
	142	1	0.0	0.0	0.0	0.0	2	1.0	0.0	220.0	2	1.06	0.94;
	143	1	26.0	10.0	0.0	0.0	2	1.0	0.0	220.0	2	1.06	0.94;
	144	2	0.0	0.0	0.0	0.0	2	1.0	0.0	380.0	2	1.06	0.94;
	145	2	37.0	11.0	0.0	0.0	2	1.0	0.0	220.0	2	1.06	0.94;
	146	1	25.0	8.0	0.0	0.0	2	1.0	0.0	220.0	2	1.06	0.94;
	147	1	19.0	5.0	0.0	0.0	2	1.0	0.0	220.0	2	1.06	0.94;
	148	1	0.0	0.0	0.0	0.0	2	1.0	0.0	220.0	2	1.06	0.94;
	149	1	35.0	10.0	0.0	0.0	2	1.0	0.0	220.0	2	1.06	0.94;
	150	1	0.0	0.0	0.0	0.0	2	1.0	0.0	220.0	2	1.06	0.94;
	151	2	70.0	25.0	0.0	0.0	2	1.0	0.0	220.0	2	1.06	0.94;
	152	1	55.0	21.0	0.0	0.0	2	1.0	0.0	220.0	2	1.06	0.94;
	153	1	17.0	4.0	0.0	0.0	2	1.0	0.0	220.0	2	1.06	0.94;
	154	1	0.0	0.0	0.0	0.0	2	1.0	0.0	220.0	2	1.06	0.94;
	155	1	27.0	9.0	0.0	0.0	2	1.0	0.0	220.0	2	1.06	0.94;
	156	3	0.0	0.0	0.0	0.0	2	1.0	0.0	380.0	2	1.06	0.94;
	157	1	95.0	33.0	0.0	0.0	2	1.0	0.0	220.0	2	1.06	0.94;
	158	2	0.0	0.0	0.0	0.0	2	1.0	0.0	220.0	2	1.06	0.94;
	159	1	0.0	0.0	0.0	0.0	2	1.0	0.0	220.0	2	1.06	0.94;
	160	1	183.0	66.0	0.0	20.0	2	1.0	0.0	220.0	2	1.06	0.94;
	161	1	17.0	7.0	0.0	0.0	2	1.0	0.0	220.0	2	1.06	0.94;
	162	1	50.0	15.0	0.0	0.0	2	1.0	0.0	220.0	2	1.06	0.94;
	163	1	74.0	29.0	0.0	0.0	2	1.0	0.0	220.0	2	1.06	0.94;
	164	2	0.0	0.0	0.0	0.0	2	1.0	0.0	220.0	2	1.06	0.94;
	165	1	0.0	0.0	0.0	0.0	2	1.0	0.0	220.0	2	1.06	0.94;
	166	1	42.0	16.0	0.0	0.0	2	1.0	0.0	220.0	2	1.06	0.94;
	167	1	0.0	0.0	0.0	0.0	2	1.0	0.0	220.0	2	1.06	0.94;
	168	1	75.0	26.0	0.0	0.0	2	1.0	0.0	220.0	2	1.06	0.94;
	169	2	0.0	0.0	0.0	0.0	2	1.0	0.0	380.0	2	1.06	0.94;
	170	1	0.0	0.0	0.0	0.0	2	1.0	0.0	220.0	2	1.06	0.94;
	171	2	27.0	10.0	0.0	0.0	2	1.0	0.0	220.0	2	1.06	0.94;
	172	1	0.0	0.0	0.0	0.0	2	1.0	0.0	220.0	2	1.06	0.94;
	173	1	0.0	0.0	0.0	0.0	2	1.0	0.0	220.0	2	1.06	0.94;
	174	1	74.0	28.0	0.0	0.0	2	1.0	0.0	220.0	2	1.06	0.94;
	175	1	68.0	20.0	0.0	0.0	2	1.0	0.0	220.0	2	1.06	0.94;
	176	1	0.0	0.0	0.0	0.0	2	1.0	0.0	220.0	2	1.06	0.94;
	177	2	0.0	0.0	0.0	0.0	2	1.0	0.0	220.0	2	1.06	0.94;
	178	1	114.0	45.0	0.0	15.0	2	1.0	0.0	220.0	2	1.06	0.94;
	179	1	63.0	18.0	0.0	0.0	2	1.0	0.0	220.0	2	1.06	0.94;
	180	1	45.0	14.0	0.0	0.0	2	1.0	0.0	220.0	2	1.06	0.94;
	181	2	0.0	0.0	0.0	0.0	2	1.0	0.0	380.0	2	1.06	0.94;
	182	1	64.0	22.0	0.0	0.0	2	1.0	0.0	220.0	2	1.06	0.94;
	183	1	16.0	6.0	0.0	0.0	2	1.0	0.0	220.0	2	1.06	0.94;
	184	2	30.0	10.0	0.0	0.0	2	1.0	0.0	220.0	2	1.06	0.94;
	185	1	0.0	0.0	0.0	0.0	2	1.0	0.0	220.0	2	1.06	0.94;
	186	1	52.0	19.0	0.0	0.0	2	1.0	0.0	220.0	2	1.06	0.94;
	187	1	56.0	21.0	0.0	0.0	2	1.0	0.0	220.0	2	1.06	0.94;
	188	1	60.0	17.0	0.0	0.0	2	1.0	0.0	220.0	2	1.06	0.94;
	189	1	16.0	5.0	0.0	0.0	2	1.0	0.0	220.0	2	1.06	0.94;
	190	2	0.0	0.0	0.0	0.0	2	1.0	0.0	220.0	2	1.06	0.94;
	191	1	17.0	5.0	0.0	0.0	2	1.0	0.0	220.0	2	1.06	0.94;
	192	1	43.0	14.0	0.0	0.0	2	1.0	0.0	220.0	2	1.06	0.94;
	193	1	48.0	19.0	0.0	0.0	2	1.0	0.0	220.0	2	1.06	0.94;
	194	2	0.0	0.0	0.0	0.0	2	1.0	0.0	380.0	2	1.06	0.94;
	195	1	89.0	23.0	0.0	0.0	2	1.0	0.0	220.0	2	1.06	0.94;
	196	1	15.0	4.0	0.0	0.0	2	1.0	0.0	220.0	2	1.06	0.94;
	197	2	0.0	0.0	0.0	0.0	2	1.0	0.0	220.0	2	1.06	0.94;
	198	1	0.0	0.0	0.0	0.0	2	1.0	0.0	220.0	2	1.06	0.94;
	199	1	22.0	6.0	0.0	0.0	2	1.0	0.0	220.0	2	1.06	0.94;
	200	1	13.0	5.0	0.0	0.0	2	1.0	0.0	220.0	2	1.06	0.94;
	201	1	46.0	16.0	0.0	0.0	3	1.0	0.0	220.0	3	1.06	0.94;
	202	1	39.0	12.0	0.0	0.0	3	1.0	0.0	220.0	3	1.06	0.94;
	203	2	83.0	27.0	0.0	0.0	3	1.0	0.0	220.0	3	1.06	0.94;
	204	1	18.0	6.0	0.0	0.0	3	1.0	0.0	220.0	3	1.06	0.94;
	205	1	14.0	5.0	0.0	0.0	3	1.0	0.0	220.0	3	1.06	0.94;
	206	2	0.0	0.0	0.0	0.0	3	1.0	0.0	380.0	3	1.06	0.94;
	207	1	27.0	7.0	0.0	0.0	3	1.0	0.0	220.0	3	1.06	0.94;
	208	1	0.0	0.0	0.0	0.0	3	1.0	0.0	220.0	3	1.06	0.94;
	209	1	17.0	4.0	0.0	0.0	3	1.0	0.0	220.0	3	1.06	0.94;
	210	2	0.0	0.0	0.0	0.0	3	1.0	0.0	220.0	3	1.06	0.94;
	211	1	0.0	0.0	0.0	0.0	3	1.0	0.0	220.0	3	1.06	0.94;
	212	1	29.0	11.0	0.0	0.0	3	1.0	0.0	220.0	3	1.06	0.94;
	213	1	0.0	0.0	0.0	0.0	3	1.0	0.0	220.0	3	1.06	0.94;
	214	1	65.0	23.0	0.0	0.0	3	1.0	0.0	220.0	3	1.06	0.94;
	215	1	39.0	13.0	0.0	0.0	3	1.0	0.0	220.0	3	1.06	0.94;
	216	2	0.0	0.0	0.0	0.0	3	1.0	0.0	220.0	3	1.06	0.94;
	217	1	23.0	9.0	0.0	0.0	3	1.0	0.0	220.0	3	1.06	0.94;
	218	1	36.0	11.0	0.0	0.0	3	1.0	0.0	220.0	3	1.06	0.94;
	219	2	0.0	0.0	0.0	0.0	3	1.0	0.0	380.0	3	1.06	0.94;
	220	1	73.0	26.0	0.0	0.0	3	1.0	0.0	220.0	3	1.06	0.94;
	221	1	54.0	18.0	0.0	0.0	3	1.0	0.0	220.0	3	1.06	0.94;
	222	1	33.0	13.0	0.0	0.0	3	1.0	0.0	220.0	3	1.06	0.94;
	223	2	115.0	43.0	0.0	10.0	3	1.0	0.0	220.0	3	1.06	0.94;
	224	1	0.0	0.0	0.0	0.0	3	1.0	0.0	220.0	3	1.06	0.94;
	225	1	53.0	17.0	0.0	0.0	3	1.0	0.0	220.0	3	1.06	0.94;
	226	1	0.0	0.0	0.0	0.0	3	1.0	0.0	220.0	3	1.06	0.94;
	227	1	17.0	5.0	0.0	0.0	3	1.0	0.0	220.0	3	1.06	0.94;
	228	1	27.0	8.0	0.0	0.0	3	1.0	0.0	220.0	3	1.06	0.94;
	229	2	69.0	21.0	0.0	0.0	3	1.0	0.0	220.0	3	1.06	0.94;
	230	1	6.0	2.0	0.0	0.0	3	1.0	0.0	220.0	3	1.06	0.94;
	231	2	0.0	0.0	0.0	0.0	3	1.0	0.0	380.0	3	1.06	0.94;
	232	1	0.0	0.0	0.0	0.0	3	1.0	0.0	220.0	3	1.06	0.94;
	233	1	27.0	7.0	0.0	0.0	3	1.0	0.0	220.0	3	1.06	0.94;
	234	1	0.0	0.0	0.0	0.0	3	1.0	0.0	220.0	3	1.06	0.94;
	235	1	98.0	34.0	0.0	25.0	3	1.0	0.0	220.0	3	1.06	0.94;
	236	2	0.0	0.0	0.0	0.0	3	1.0	0.0	220.0	3	1.06	0.94;
	237	1	120.0	30.0	0.0	25.0	3	1.0	0.0	220.0	3	1.06	0.94;
	238	1	85.0	31.0	0.0	0.0	3	1.0	0.0	220.0	3	1.06	0.94;
	239	1	27.0	9.0	0.0	0.0	3	1.0	0.0	220.0	3	1.06	0.94;
	240	1	0.0	0.0	0.0	0.0	3	1.0	0.0	220.0	3	1.06	0.94;
	241	1	46.0	13.0	0.0	0.0	3	1.0	0.0	220.0	3	1.06	0.94;
	242	2	187.0	70.0	0.0	10.0	3	1.0	0.0	220.0	3	1.06	0.94;
	243	1	15.0	4.0	0.0	0.0	3	1.0	0.0	220.0	3	1.06	0.94;
	244	2	0.0	0.0	0.0	0.0	3	1.0	0.0	380.0	3	1.06	0.94;
	245	1	18.0	7.0	0.0	0.0	3	1.0	0.0	220.0	3	1.06	0.94;
	246	1	106.0	41.0	0.0	25.0	3	1.0	0.0	220.0	3	1.06	0.94;
	247	1	51.0	19.0	0.0	0.0	3	1.0	0.0	220.0	3	1.06	0.94;
	248	1	18.0	5.0	0.0	0.0	3	1.0	0.0	220.0	3	1.06	0.94;
	249	2	64.0	24.0	0.0	0.0	3	1.0	0.0	220.0	3	1.06	0.94;
	250	1	64.0	16.0	0.0	0.0	3	1.0	0.0	220.0	3	1.06	0.94;
	251	1	78.0	30.0	0.0	0.0	3	1.0	0.0	220.0	3	1.06	0.94;
	252	1	0.0	0.0	0.0	0.0	3	1.0	0.0	220.0	3	1.06	0.94;
	253	1	47.0	18.0	0.0	0.0	3	1.0	0.0	220.0	3	1.06	0.94;
	254	1	0.0	0.0	0.0	0.0	3	1.0	0.0	220.0	3	1.06	0.94;
	255	2	0.0	0.0	0.0	0.0	3	1.0	0.0	220.0	3	1.06	0.94;
	256	2	0.0	0.0	0.0	0.0	3	1.0	0.0	380.0	3	1.06	0.94;
	257	1	51.0	17.0	0.0	0.0	3	1.0	0.0	220.0	3	1.06	0.94;
	258	1	31.0	12.0	0.0	0.0	3	1.0	0.0	220.0	3	1.06	0.94;
	259	1	27.0	7.0	0.0	0.0	3	1.0	0.0	220.0	3	1.06	0.94;
	260	1	42.0	11.0	0.0	0.0	3	1.0	0.0	220.0	3	1.06	0.94;
	261	1	28.0	11.0	0.0	0.0	3	1.0	0.0	220.0	3	1.06	0.94;
	262	2	11.0	3.0	0.0	0.0	3	1.0	0.0	220.0	3	1.06	0.94;
	263	1	11.0	4.0	0.0	0.0	3	1.0	0.0	220.0	3	1.06	0.94;
	264	1	0.0	0.0	0.0	0.0	3	1.0	0.0	220.0	3	1.06	0.94;
	265	1	0.0	0.0	0.0	0.0	3	1.0	0.0	220.0	3	1.06	0.94;
	266	1	35.0	11.0	0.0	0.0	3	1.0	0.0	220.0	3	1.06	0.94;
	267	1	16.0	4.0	0.0	0.0	3	1.0	0.0	220.0	3	1.06	0.94;
	268	2	59.0	16.0	0.0	0.0	3	1.0	0.0	220.0	3	1.06	0.94;
	269	2	0.0	0.0	0.0	0.0	3	1.0	0.0	380.0	3	1.06	0.94;
	270	1	0.0	0.0	0.0	0.0	3	1.0	0.0	220.0	3	1.06	0.94;
	271	1	0.0	0.0	0.0	0.0	3	1.0	0.0	220.0	3	1.06	0.94;
	272	1	64.0	22.0	0.0	0.0	3	1.0	0.0	220.0	3	1.06	0.94;
	273	1	0.0	0.0	0.0	0.0	3	1.0	0.0	220.0	3	1.06	0.94;
	274	1	57.0	15.0	0.0	0.0	3	1.0	0.0	220.0	3	1.06	0.94;
	275	2	0.0	0.0	0.0	0.0	3	1.0	0.0	220.0	3	1.06	0.94;
	276	1	45.0	17.0	0.0	0.0	3	1.0	0.0	220.0	3	1.06	0.94;
	277	1	12.0	4.0	0.0	0.0	3	1.0	0.0	220.0	3	1.06	0.94;
	278	1	187.0	57.0	0.0	25.0	3	1.0	0.0	220.0	3	1.06	0.94;
	279	1	0.0	0.0	0.0	0.0	3	1.0	0.0	220.0	3	1.06	0.94;
	280	1	68.0	22.0	0.0	0.0	3	1.0	0.0	220.0	3	1.06	0.94;
	281	2	0.0	0.0	0.0	0.0	3	1.0	0.0	380.0	3	1.06	0.94;
	282	2	113.0	39.0	0.0	25.0	3	1.0	0.0	220.0	3	1.06	0.94;
	283	1	0.0	0.0	0.0	0.0	3	1.0	0.0	220.0	3	1.06	0.94;
	284	1	77.0	23.0	0.0	0.0	3	1.0	0.0	220.0	3	1.06	0.94;
	285	1	0.0	0.0	0.0	0.0	3	1.0	0.0	220.0	3	1.06	0.94;
	286	1	29.0	8.0	0.0	0.0	3	1.0	0.0	220.0	3	1.06	0.94;
	287	1	34.0	13.0	0.0	0.0	3	1.0	0.0	220.0	3	1.06	0.94;
	288	2	31.0	9.0	0.0	0.0	3	1.0	0.0	220.0	3	1.06	0.94;
	289	1	21.0	7.0	0.0	0.0	3	1.0	0.0	220.0	3	1.06	0.94;
	290	1	31.0	8.0	0.0	0.0	3	1.0	0.0	220.0	3	1.06	0.94;
	291	1	53.0	15.0	0.0	0.0	3	1.0	0.0	220.0	3	1.06	0.94;
	292	1	19.0	7.0	0.0	0.0	3	1.0	0.0	220.0	3	1.06	0.94;
	293	1	31.0	12.0	0.0	0.0	3	1.0	0.0	220.0	3	1.06	0.94;
	294	2	0.0	0.0	0.0	0.0	3	1.0	0.0	380.0	3	1.06	0.94;
	295	1	49.0	16.0	0.0	0.0	3	1.0	0.0	220.0	3	1.06	0.94;
	296	1	50.0	14.0	0.0	0.0	3	1.0	0.0	220.0	3	1.06	0.94;
	297	1	34.0	9.0	0.0	0.0	3	1.0	0.0	220.0	3	1.06	0.94;
	298	1	33.0	10.0	0.0	0.0	3	1.0	0.0	220.0	3	1.06	0.94;
	299	1	17.0	6.0	0.0	0.0	3	1.0	0.0	220.0	3	1.06	0.94;
	300	1	110.0	38.0	0.0	25.0	3	1.0	0.0	220.0	3	1.06	0.94;
];

%% generator data
%	bus	Pg	Qg	Qmax	Qmin	Vg	mBase	status	Pmax	Pmin
mpc.gen = [
	1	142.0	0.0	505.0	-20.0	1.005	100.0	1	180.0	0.0;
	6	193.0	0.0	420.0	-20.0	1.02	100.0	1	250.0	0.0;
	8	114.0	0.0	45.0	-35.0	1.015	100.0	1	150.0	0.0;
	14	75.0	0.0	20.0	-35.0	1.01	100.0	1	100.0	0.0;
	19	193.0	0.0	145.0	-270.0	1.005	100.0	1	250.0	0.0;
	21	175.0	0.0	95.0	-20.0	1.01	100.0	1	230.0	0.0;
	27	70.0	0.0	45.0	-20.0	1.01	100.0	1	90.0	0.0;
	31	193.0	0.0	320.0	-20.0	1.02	100.0	1	250.0	0.0;
	34	72.0	0.0	165.0	-20.0	1.005	100.0	1	90.0	0.0;
	40	152.0	0.0	60.0	-165.0	1.0	100.0	1	200.0	0.0;
	44	193.0	0.0	115.0	-20.0	1.02	100.0	1	250.0	0.0;
	47	131.0	0.0	50.0	-485.0	1.01	100.0	1	170.0	0.0;
	53	64.0	0.0	235.0	-20.0	1.02	100.0	1	80.0	0.0;
	56	193.0	0.0	180.0	-20.0	1.015	100.0	1	250.0	0.0;
	60	152.0	0.0	60.0	-245.0	1.0	100.0	1	200.0	0.0;
	66	151.0	0.0	60.0	-20.0	1.01	100.0	1	200.0	0.0;
	69	193.0	0.0	75.0	-20.0	1.01	100.0	1	250.0	0.0;
	73	77.0	0.0	530.0	-20.0	1.02	100.0	1	100.0	0.0;
	79	138.0	0.0	135.0	-20.0	1.015	100.0	1	180.0	0.0;
	81	193.0	0.0	75.0	-310.0	1.0	100.0	1	250.0	0.0;
	86	147.0	0.0	55.0	-160.0	1.005	100.0	1	190.0	0.0;
	92	95.0	0.0	135.0	-20.0	1.015	100.0	1	120.0	0.0;
	94	193.0	0.0	320.0	-20.0	1.005	100.0	1	250.0	0.0;
	99	138.0	0.0	130.0	-20.0	1.02	100.0	1	180.0	0.0;
	105	136.0	0.0	100.0	-55.0	1.02	100.0	1	180.0	0.0;
	106	160.0	0.0	65.0	-160.0	1.0	100.0	1	210.0	0.0;
	112	126.0	0.0	50.0	-25.0	1.0	100.0	1	160.0	0.0;
	118	105.0	0.0	560.0	-20.0	1.02	100.0	1	140.0	0.0;
	119	160.0	0.0	65.0	-300.0	1.0	100.0	1	210.0	0.0;
	125	124.0	0.0	230.0	-20.0	1.015	100.0	1	160.0	0.0;
	131	160.0	0.0	175.0	-20.0	1.015	100.0	1	210.0	0.0;
	132	102.0	0.0	70.0	-20.0	1.01	100.0	1	130.0	0.0;
	138	86.0	0.0	35.0	-180.0	1.0	100.0	1	110.0	0.0;
	144	160.0	0.0	495.0	-20.0	1.015	100.0	1	210.0	0.0;
	145	116.0	0.0	45.0	-145.0	1.0	100.0	1	150.0	0.0;
	151	94.0	0.0	35.0	-40.0	1.005	100.0	1	120.0	0.0;
	156	149.0	0.0	9999.0	-9999.0	1.005	100.0	1	1380	0.0;
	158	110.0	0.0	270.0	-20.0	1.02	100.0	1	140.0	0.0;
	164	123.0	0.0	85.0	-20.0	1.01	100.0	1	160.0	0.0;
	169	160.0	0.0	175.0	-20.0	1.01	100.0	1	210.0	0.0;
	171	82.0	0.0	225.0	-20.0	1.01	100.0	1	110.0	0.0;
	177	124.0	0.0	50.0	-555.0	1.0	100.0	1	160.0	0.0;
	181	160.0	0.0	65.0	-345.0	1.0	100.0	1	210.0	0.0;
	184	47.0	0.0	20.0	-125.0	1.02	100.0	1	60.0	0.0;
	190	135.0	0.0	55.0	-160.0	1.005	100.0	1	180.0	0.0;
	194	160.0	0.0	575.0	-20.0	1.02	100.0	1	210.0	0.0;
	197	51.0	0.0	150.0	-80.0	1.015	100.0	1	70.0	0.0;
	203	163.0	0.0	285.0	-20.0	1.015	100.0	1	210.0	0.0;
	206	198.0	0.0	15.0	-30.0	1.01	100.0	1	260.0	0.0;
	210	81.0	0.0	330.0	-20.0	1.0	100.0	1	110.0	0.0;
	216	77.0	0.0	10.0	-10.0	1.015	100.0	1	100.0	0.0;
	219	198.0	0.0	80.0	-575.0	1.0	100.0	1	260.0	0.0;
	223	61.0	0.0	580.0	-20.0	1.015	100.0	1	80.0	0.0;
	229	165.0	0.0	65.0	-165.0	1.0	100.0	1	210.0	0.0;
	231	198.0	0.0	80.0	-20.0	1.01	100.0	1	260.0	0.0;
	236	146.0	0.0	80.0	-20.0	1.015	100.0	1	190.0	0.0;
	242	191.0	0.0	130.0	-240.0	1.0	100.0	1	250.0	0.0;
	244	198.0	0.0	80.0	-145.0	1.01	100.0	1	260.0	0.0;
	249	116.0	0.0	45.0	-425.0	1.005	100.0	1	150.0	0.0;
	255	186.0	0.0	380.0	-20.0	1.01	100.0	1	240.0	0.0;
	256	198.0	0.0	325.0	-20.0	1.02	100.0	1	260.0	0.0;
	262	120.0	0.0	50.0	-20.0	1.015	100.0	1	160.0	0.0;
	268	177.0	0.0	160.0	-85.0	1.02	100.0	1	230.0	0.0;
	269	198.0	0.0	80.0	-255.0	1.01	100.0	1	260.0	0.0;
	275	192.0	0.0	75.0	-110.0	1.015	100.0	1	250.0	0.0;
	281	198.0	0.0	155.0	-20.0	1.02	100.0	1	260.0	0.0;
	282	124.0	0.0	925.0	-20.0	1.02	100.0	1	160.0	0.0;
	288	133.0	0.0	240.0	-20.0	1.005	100.0	1	170.0	0.0;
	294	198.0	0.0	100.0	-20.0	1.015	100.0	1	260.0	0.0;
];

%% branch data
%	fbus	tbus	r	x	b	rateA	rateB	rateC	ratio	angle	status	angmin	angmax
mpc.branch = [
	1	40	0.001613	0.005242	0.00913	300.0	300.0	300.0	0.0	0.0	1	-360.0	360.0;
	1	63	0.001367	0.004443	0.00774	250.0	250.0	250.0	0.0	0.0	1	-360.0	360.0;
	1	68	0.001732	0.005628	0.0098	300.0	300.0	300.0	0.0	0.0	1	-360.0	360.0;
	2	79	0.002242	0.007287	0.01269	150.0	150.0	150.0	0.0	0.0	1	-360.0	360.0;
	3	38	0.00202	0.006565	0.01143	150.0	150.0	150.0	0.0	0.0	1	-360.0	360.0;
	3	48	0.002241	0.007284	0.01269	150.0	150.0	150.0	0.0	0.0	1	-360.0	360.0;
	4	64	0.00209	0.006793	0.01183	250.0	250.0	250.0	0.0	0.0	1	-360.0	360.0;
	4	83	0.002503	0.008136	0.01417	150.0	150.0	150.0	0.0	0.0	1	-360.0	360.0;
	5	49	0.001829	0.005944	0.01035	300.0	300.0	300.0	0.0	0.0	1	-360.0	360.0;
	5	50	0.001345	0.004371	0.00761	400.0	400.0	400.0	0.0	0.0	1	-360.0	360.0;
	7	53	0.001434	0.004661	0.00812	150.0	150.0	150.0	0.0	0.0	1	-360.0	360.0;
	7	79	0.002249	0.007309	0.01273	250.0	250.0	250.0	0.0	0.0	1	-360.0	360.0;
	8	14	0.001711	0.00556	0.00968	400.0	400.0	400.0	0.0	0.0	1	-360.0	360.0;
	9	51	0.001604	0.005214	0.00908	150.0	150.0	150.0	0.0	0.0	1	-360.0	360.0;
	10	17	0.002244	0.007294	0.01271	400.0	400.0	400.0	0.0	0.0	1	-360.0	360.0;
	10	28	0.001382	0.004492	0.00782	150.0	150.0	150.0	0.0	0.0	1	-360.0	360.0;
	10	62	0.002193	0.007127	0.01241	250.0	250.0	250.0	0.0	0.0	1	-360.0	360.0;
	11	66	0.001649	0.005361	0.00934	250.0	250.0	250.0	0.0	0.0	1	-360.0	360.0;
	11	88	0.001953	0.006347	0.01106	250.0	250.0	250.0	0.0	0.0	1	-360.0	360.0;
	12	72	0.002439	0.007925	0.0138	150.0	150.0	150.0	0.0	0.0	1	-360.0	360.0;
	12	96	0.002616	0.008502	0.01481	300.0	300.0	300.0	0.0	0.0	1	-360.0	360.0;
	13	54	0.001652	0.005368	0.00935	150.0	150.0	150.0	0.0	0.0	1	-360.0	360.0;
	13	95	0.001405	0.004565	0.00795	150.0	150.0	150.0	0.0	0.0	1	-360.0	360.0;
	14	18	0.001413	0.004593	0.008	150.0	150.0	150.0	0.0	0.0	1	-360.0	360.0;
	14	91	0.002279	0.007405	0.0129	600.0	600.0	600.0	0.0	0.0	1	-360.0	360.0;
	15	72	0.002201	0.007152	0.01246	150.0	150.0	150.0	0.0	0.0	1	-360.0	360.0;
	16	25	0.002041	0.006634	0.01156	200.0	200.0	200.0	0.0	0.0	1	-360.0	360.0;
	16	88	0.00174	0.005655	0.00985	150.0	150.0	150.0	0.0	0.0	1	-360.0	360.0;
	16	96	0.001686	0.005478	0.00954	150.0	150.0	150.0	0.0	0.0	1	-360.0	360.0;
	17	60	0.001531	0.004976	0.00867	250.0	250.0	250.0	0.0	0.0	1	-360.0	360.0;
	20	36	0.001839	0.005978	0.01041	150.0	150.0	150.0	0.0	0.0	1	-360.0	360.0;
	20	43	0.001506	0.004894	0.00852	150.0	150.0	150.0	0.0	0.0	1	-360.0	360.0;
	20	100	0.001559	0.005067	0.00883	150.0	150.0	150.0	0.0	0.0	1	-360.0	360.0;
	21	51	0.001997	0.006491	0.01131	250.0	250.0	250.0	0.0	0.0	1	-360.0	360.0;
	21	65	0.002257	0.007335	0.01278	150.0	150.0	150.0	0.0	0.0	1	-360.0	360.0;
	21	70	0.001716	0.005576	0.00971	150.0	150.0	150.0	0.0	0.0	1	-360.0	360.0;
	22	67	0.002032	0.006605	0.01151	150.0	150.0	150.0	0.0	0.0	1	-360.0	360.0;
	22	71	0.001879	0.006108	0.01064	150.0	150.0	150.0	0.0	0.0	1	-360.0	360.0;
	23	38	0.002282	0.007417	0.01292	250.0	250.0	250.0	0.0	0.0	1	-360.0	360.0;
	23	62	0.001306	0.004246	0.0074	200.0	200.0	200.0	0.0	0.0	1	-360.0	360.0;
	23	100	0.001702	0.00553	0.00963	200.0	200.0	200.0	0.0	0.0	1	-360.0	360.0;
	24	32	0.002456	0.007981	0.0139	150.0	150.0	150.0	0.0	0.0	1	-360.0	360.0;
	24	48	0.002335	0.007587	0.01322	150.0	150.0	150.0	0.0	0.0	1	-360.0	360.0;
	24	92	0.002418	0.00786	0.01369	150.0	150.0	150.0	0.0	0.0	1	-360.0	360.0;
	25	29	0.001569	0.0051	0.00888	150.0	150.0	150.0	0.0	0.0	1	-360.0	360.0;
	26	41	0.001677	0.00545	0.00949	150.0	150.0	150.0	0.0	0.0	1	-360.0	360.0;
	26	98	0.001724	0.005603	0.00976	250.0	250.0	250.0	0.0	0.0	1	-360.0	360.0;
	27	33	0.001403	0.00456	0.00794	150.0	150.0	150.0	0.0	0.0	1	-360.0	360.0;
	27	76	0.001728	0.005617	0.00978	150.0	150.0	150.0	0.0	0.0	1	-360.0	360.0;
	28	57	0.00206	0.006694	0.01166	150.0	150.0	150.0	0.0	0.0	1	-360.0	360.0;
	29	78	0.001784	0.005797	0.0101	150.0	150.0	150.0	0.0	0.0	1	-360.0	360.0;
	30	92	0.002164	0.007032	0.01225	150.0	150.0	150.0	0.0	0.0	1	-360.0	360.0;
	32	39	0.00193	0.006272	0.01092	150.0	150.0	150.0	0.0	0.0	1	-360.0	360.0;
	33	82	0.001083	0.003518	0.00613	150.0	150.0	150.0	0.0	0.0	1	-360.0	360.0;
	34	85	0.001342	0.004362	0.0076	150.0	150.0	150.0	0.0	0.0	1	-360.0	360.0;
	34	93	0.001693	0.005502	0.00958	150.0	150.0	150.0	0.0	0.0	1	-360.0	360.0;
	35	85	0.001505	0.00489	0.00852	250.0	250.0	250.0	0.0	0.0	1	-360.0	360.0;
	35	91	0.00201	0.006532	0.01138	1200.0	1200.0	1200.0	0.0	0.0	1	-360.0	360.0;
	37	53	0.001273	0.004138	0.00721	150.0	150.0	150.0	0.0	0.0	1	-360.0	360.0;
	37	59	0.001189	0.003865	0.00673	150.0	150.0	150.0	0.0	0.0	1	-360.0	360.0;
	41	79	0.002265	0.007362	0.01282	250.0	250.0	250.0	0.0	0.0	1	-360.0	360.0;
	41	93	0.001123	0.00365	0.00636	150.0	150.0	150.0	0.0	0.0	1	-360.0	360.0;
	42	50	0.001863	0.006056	0.01055	400.0	400.0	400.0	0.0	0.0	1	-360.0	360.0;
	42	63	0.001756	0.005708	0.00994	200.0	200.0	200.0	0.0	0.0	1	-360.0	360.0;
	45	58	0.001756	0.005705	0.00994	150.0	150.0	150.0	0.0	0.0	1	-360.0	360.0;
	46	73	0.001466	0.004766	0.0083	150.0	150.0	150.0	0.0	0.0	1	-360.0	360.0;
	47	58	0.001504	0.004888	0.00851	150.0	150.0	150.0	0.0	0.0	1	-360.0	360.0;
	47	74	0.001426	0.004634	0.00807	200.0	200.0	200.0	0.0	0.0	1	-360.0	360.0;
	49	54	0.001671	0.00543	0.00946	200.0	200.0	200.0	0.0	0.0	1	-360.0	360.0;
	49	77	0.001222	0.003972	0.00692	200.0	200.0	200.0	0.0	0.0	1	-360.0	360.0;
	52	55	0.001197	0.003889	0.00677	150.0	150.0	150.0	0.0	0.0	1	-360.0	360.0;
	52	95	0.002117	0.00688	0.01198	600.0	600.0	600.0	0.0	0.0	1	-360.0	360.0;
	52	98	0.002223	0.007224	0.01258	800.0	800.0	800.0	0.0	0.0	1	-360.0	360.0;
	59	71	0.001144	0.003719	0.00648	150.0	150.0	150.0	0.0	0.0	1	-360.0	360.0;
	59	84	0.001468	0.004771	0.00831	150.0	150.0	150.0	0.0	0.0	1	-360.0	360.0;
	60	89	0.001925	0.006256	0.0109	150.0	150.0	150.0	0.0	0.0	1	-360.0	360.0;
	61	86	0.001421	0.00462	0.00805	400.0	400.0	400.0	0.0	0.0	1	-360.0	360.0;
	61	91	0.002242	0.007286	0.01269	600.0	600.0	600.0	0.0	0.0	1	-360.0	360.0;
	61	97	0.001907	0.006198	0.0108	150.0	150.0	150.0	0.0	0.0	1	-360.0	360.0;
	63	76	0.001917	0.006229	0.01085	150.0	150.0	150.0	0.0	0.0	1	-360.0	360.0;
	64	68	0.001113	0.003618	0.0063	150.0	150.0	150.0	0.0	0.0	1	-360.0	360.0;
	65	78	0.001759	0.005716	0.00996	150.0	150.0	150.0	0.0	0.0	1	-360.0	360.0;
	66	86	0.001945	0.006322	0.01101	400.0	400.0	400.0	0.0	0.0	1	-360.0	360.0;
	73	74	0.001345	0.00437	0.00761	150.0	150.0	150.0	0.0	0.0	1	-360.0	360.0;
	74	90	0.001331	0.004326	0.00754	150.0	150.0	150.0	0.0	0.0	1	-360.0	360.0;
	75	85	0.001498	0.004867	0.00848	150.0	150.0	150.0	0.0	0.0	1	-360.0	360.0;
	80	82	0.001901	0.006177	0.01076	150.0	150.0	150.0	0.0	0.0	1	-360.0	360.0;
	80	99	0.001755	0.005704	0.00994	150.0	150.0	150.0	0.0	0.0	1	-360.0	360.0;
	84	90	0.001676	0.005446	0.00949	150.0	150.0	150.0	0.0	0.0	1	-360.0	360.0;
	87	99	0.001311	0.004262	0.00742	150.0	150.0	150.0	0.0	0.0	1	-360.0	360.0;
	101	120	0.00139	0.004519	0.00787	150.0	150.0	150.0	0.0	0.0	1	-360.0	360.0;
	101	141	0.00265	0.008611	0.015	400.0	400.0	400.0	0.0	0.0	1	-360.0	360.0;
	102	149	0.002614	0.008494	0.0148	200.0	200.0	200.0	0.0	0.0	1	-360.0	360.0;
	102	197	0.001369	0.004449	0.00775	150.0	150.0	150.0	0.0	0.0	1	-360.0	360.0;
	103	132	0.00177	0.005753	0.01002	200.0	200.0	200.0	0.0	0.0	1	-360.0	360.0;
	103	136	0.001939	0.006302	0.01098	200.0	200.0	200.0	0.0	0.0	1	-360.0	360.0;
	104	116	0.001735	0.005638	0.00982	150.0	150.0	150.0	0.0	0.0	1	-360.0	360.0;
	105	117	0.001785	0.005803	0.01011	150.0	150.0	150.0	0.0	0.0	1	-360.0	360.0;
	107	192	0.002407	0.007824	0.01363	200.0	200.0	200.0	0.0	0.0	1	-360.0	360.0;
	108	129	0.001244	0.004042	0.00704	150.0	150.0	150.0	0.0	0.0	1	-360.0	360.0;
	108	186	0.001223	0.003974	0.00692	500.0	500.0	500.0	0.0	0.0	1	-360.0	360.0;
	109	135	0.001488	0.004838	0.00843	150.0	150.0	150.0	0.0	0.0	1	-360.0	360.0;
	109	147	0.001448	0.004706	0.0082	300.0	300.0	300.0	0.0	0.0	1	-360.0	360.0;
	109	151	0.001589	0.005163	0.00899	200.0	200.0	200.0	0.0	0.0	1	-360.0	360.0;
	110	114	0.001353	0.004397	0.00766	250.0	250.0	250.0	0.0	0.0	1	-360.0	360.0;
	110	123	0.001887	0.006131	0.01068	150.0	150.0	150.0	0.0	0.0	1	-360.0	360.0;
	110	145	0.001521	0.004944	0.00861	150.0	150.0	150.0	0.0	0.0	1	-360.0	360.0;
	111	166	0.002233	0.007259	0.01264	200.0	200.0	200.0	0.0	0.0	1	-360.0	360.0;
	111	184	0.002126	0.00691	0.01204	150.0	150.0	150.0	0.0	0.0	1	-360.0	360.0;
	112	134	0.002806	0.00912	0.01589	300.0	300.0	300.0	0.0	0.0	1	-360.0	360.0;
	112	142	0.001597	0.00519	0.00904	150.0	150.0	150.0	0.0	0.0	1	-360.0	360.0;
	113	140	0.001739	0.005652	0.00985	150.0	150.0	150.0	0.0	0.0	1	-360.0	360.0;
	113	185	0.001067	0.003469	0.00604	150.0	150.0	150.0	0.0	0.0	1	-360.0	360.0;
	114	174	0.001907	0.006199	0.0108	300.0	300.0	300.0	0.0	0.0	1	-360.0	360.0;
	115	118	0.002296	0.007463	0.013	500.0	500.0	500.0	0.0	0.0	1	-360.0	360.0;
	115	146	0.001805	0.005867	0.01022	150.0	150.0	150.0	0.0	0.0	1	-360.0	360.0;
	115	196	0.001894	0.006157	0.01072	300.0	300.0	300.0	0.0	0.0	1	-360.0	360.0;
	116	190	0.001433	0.004656	0.00811	150.0	150.0	150.0	0.0	0.0	1	-360.0	360.0;
	117	183	0.002088	0.006785	0.01182	150.0	150.0	150.0	0.0	0.0	1	-360.0	360.0;
	118	177	0.002016	0.006552	0.01141	600.0	600.0	600.0	0.0	0.0	1	-360.0	360.0;
	120	193	0.001394	0.00453	0.00789	200.0	200.0	200.0	0.0	0.0	1	-360.0	360.0;
	121	166	0.002241	0.007284	0.01269	150.0	150.0	150.0	0.0	0.0	1	-360.0	360.0;
	122	168	0.001906	0.006195	0.01079	150.0	150.0	150.0	0.0	0.0	1	-360.0	360.0;
	124	143	0.001235	0.004012	0.00699	150.0	150.0	150.0	0.0	0.0	1	-360.0	360.0;
	124	198	0.001527	0.004962	0.00864	150.0	150.0	150.0	0.0	0.0	1	-360.0	360.0;
	125	163	0.001866	0.006064	0.01056	150.0	150.0	150.0	0.0	0.0	1	-360.0	360.0;
	125	191	0.00197	0.006402	0.01115	150.0	150.0	150.0	0.0	0.0	1	-360.0	360.0;
	126	128	0.002497	0.008116	0.01414	300.0	300.0	300.0	0.0	0.0	1	-360.0	360.0;
	126	176	0.001813	0.005892	0.01026	300.0	300.0	300.0	0.0	0.0	1	-360.0	360.0;
	127	137	0.001891	0.006145	0.0107	300.0	300.0	300.0	0.0	0.0	1	-360.0	360.0;
	128	137	0.001784	0.005799	0.0101	300.0	300.0	300.0	0.0	0.0	1	-360.0	360.0;
	129	147	0.001249	0.004059	0.00707	200.0	200.0	200.0	0.0	0.0	1	-360.0	360.0;
	130	138	0.001374	0.004465	0.00778	150.0	150.0	150.0	0.0	0.0	1	-360.0	360.0;
	130	170	0.002051	0.006667	0.01161	150.0	150.0	150.0	0.0	0.0	1	-360.0	360.0;
	133	148	0.001346	0.004374	0.00762	150.0	150.0	150.0	0.0	0.0	1	-360.0	360.0;
	134	182	0.00127	0.004128	0.00719	200.0	200.0	200.0	0.0	0.0	1	-360.0	360.0;
	136	165	0.001599	0.005197	0.00905	150.0	150.0	150.0	0.0	0.0	1	-360.0	360.0;
	137	143	0.001348	0.00438	0.00763	150.0	150.0	150.0	0.0	0.0	1	-360.0	360.0;
	138	160	0.002978	0.00968	0.01686	250.0	250.0	250.0	0.0	0.0	1	-360.0	360.0;
	139	197	0.001523	0.004949	0.00862	150.0	150.0	150.0	0.0	0.0	1	-360.0	360.0;
	140	155	0.001876	0.006096	0.01062	150.0	150.0	150.0	0.0	0.0	1	-360.0	360.0;
	141	195	0.002656	0.008632	0.01504	400.0	400.0	400.0	0.0	0.0	1	-360.0	360.0;
	142	178	0.001702	0.005533	0.00964	150.0	150.0	150.0	0.0	0.0	1	-360.0	360.0;
	143	191	0.001777	0.005776	0.01006	150.0	150.0	150.0	0.0	0.0	1	-360.0	360.0;
	145	157	0.001771	0.005755	0.01002	250.0	250.0	250.0	0.0	0.0	1	-360.0	360.0;
	145	199	0.001094	0.003555	0.00619	150.0	150.0	150.0	0.0	0.0	1	-360.0	360.0;
	146	199	0.001526	0.004961	0.00864	150.0	150.0	150.0	0.0	0.0	1	-360.0	360.0;
	148	192	0.002037	0.006621	0.01153	150.0	150.0	150.0	0.0	0.0	1	-360.0	360.0;
	149	175	0.001492	0.00485	0.00845	150.0	150.0	150.0	0.0	0.0	1	-360.0	360.0;
	150	195	0.002266	0.007366	0.01283	250.0	250.0	250.0	0.0	0.0	1	-360.0	360.0;
	151	176	0.001831	0.005951	0.01037	300.0	300.0	300.0	0.0	0.0	1	-360.0	360.0;
	152	168	0.001844	0.005993	0.01044	150.0	150.0	150.0	0.0	0.0	1	-360.0	360.0;
	152	198	0.001601	0.005204	0.00906	150.0	150.0	150.0	0.0	0.0	1	-360.0	360.0;
	153	157	0.001268	0.004122	0.00718	400.0	400.0	400.0	0.0	0.0	1	-360.0	360.0;
	153	161	0.002241	0.007282	0.01268	300.0	300.0	300.0	0.0	0.0	1	-360.0	360.0;
	154	182	0.002184	0.007099	0.01236	150.0	150.0	150.0	0.0	0.0	1	-360.0	360.0;
	155	178	0.001793	0.005827	0.01015	150.0	150.0	150.0	0.0	0.0	1	-360.0	360.0;
	158	160	0.002272	0.007386	0.01287	250.0	250.0	250.0	0.0	0.0	1	-360.0	360.0;
	158	179	0.002039	0.006626	0.01154	150.0	150.0	150.0	0.0	0.0	1	-360.0	360.0;
	159	193	0.001278	0.004153	0.00723	150.0	150.0	150.0	0.0	0.0	1	-360.0	360.0;
	161	164	0.001486	0.00483	0.00841	150.0	150.0	150.0	0.0	0.0	1	-360.0	360.0;
	162	166	0.002549	0.008285	0.01443	250.0	250.0	250.0	0.0	0.0	1	-360.0	360.0;
	162	170	0.002318	0.007533	0.01312	200.0	200.0	200.0	0.0	0.0	1	-360.0	360.0;
	163	164	0.001886	0.006128	0.01067	250.0	250.0	250.0	0.0	0.0	1	-360.0	360.0;
	163	172	0.001991	0.006472	0.01127	250.0	250.0	250.0	0.0	0.0	1	-360.0	360.0;
	163	188	0.001442	0.004686	0.00816	150.0	150.0	150.0	0.0	0.0	1	-360.0	360.0;
	165	189	0.001727	0.005612	0.00978	150.0	150.0	150.0	0.0	0.0	1	-360.0	360.0;
	167	180	0.001326	0.004309	0.00751	150.0	150.0	150.0	0.0	0.0	1	-360.0	360.0;
	170	177	0.001136	0.003692	0.00643	150.0	150.0	150.0	0.0	0.0	1	-360.0	360.0;
	171	198	0.001568	0.005095	0.00888	150.0	150.0	150.0	0.0	0.0	1	-360.0	360.0;
	172	185	0.001355	0.004405	0.00767	250.0	250.0	250.0	0.0	0.0	1	-360.0	360.0;
	173	187	0.003026	0.009833	0.01713	500.0	500.0	500.0	0.0	0.0	1	-360.0	360.0;
	174	187	0.001597	0.00519	0.00904	400.0	400.0	400.0	0.0	0.0	1	-360.0	360.0;
	183	200	0.001411	0.004585	0.00799	150.0	150.0	150.0	0.0	0.0	1	-360.0	360.0;
	189	196	0.001433	0.004656	0.00811	300.0	300.0	300.0	0.0	0.0	1	-360.0	360.0;
	201	260	0.002038	0.006623	0.01154	500.0	500.0	500.0	0.0	0.0	1	-360.0	360.0;
	201	270	0.001377	0.004474	0.00779	300.0	300.0	300.0	0.0	0.0	1	-360.0	360.0;
	202	282	0.001429	0.004644	0.00809	150.0	150.0	150.0	0.0	0.0	1	-360.0	360.0;
	202	292	0.002294	0.007456	0.01299	150.0	150.0	150.0	0.0	0.0	1	-360.0	360.0;
	203	228	0.001557	0.005059	0.00881	250.0	250.0	250.0	0.0	0.0	1	-360.0	360.0;
	204	211	0.001783	0.005794	0.01009	150.0	150.0	150.0	0.0	0.0	1	-360.0	360.0;
	204	232	0.00233	0.007573	0.01319	200.0	200.0	200.0	0.0	0.0	1	-360.0	360.0;
	205	214	0.001824	0.005929	0.01033	150.0	150.0	150.0	0.0	0.0	1	-360.0	360.0;
	205	264	0.001727	0.005612	0.00978	150.0	150.0	150.0	0.0	0.0	1	-360.0	360.0;
	207	287	0.001486	0.004829	0.00841	150.0	150.0	150.0	0.0	0.0	1	-360.0	360.0;
	208	275	0.002713	0.008816	0.01536	150.0	150.0	150.0	0.0	0.0	1	-360.0	360.0;
	208	291	0.001564	0.005082	0.00885	150.0	150.0	150.0	0.0	0.0	1	-360.0	360.0;
	209	239	0.001265	0.004112	0.00716	600.0	600.0	600.0	0.0	0.0	1	-360.0	360.0;
	209	277	0.00187	0.006079	0.01059	200.0	200.0	200.0	0.0	0.0	1	-360.0	360.0;
	210	238	0.002771	0.009005	0.01569	1000.0	1000.0	1000.0	0.0	0.0	1	-360.0	360.0;
	211	251	0.001886	0.006129	0.01068	150.0	150.0	150.0	0.0	0.0	1	-360.0	360.0;
	212	277	0.001091	0.003547	0.00618	500.0	500.0	500.0	0.0	0.0	1	-360.0	360.0;
	213	222	0.001403	0.00456	0.00794	150.0	150.0	150.0	0.0	0.0	1	-360.0	360.0;
	213	276	0.001567	0.005093	0.00887	200.0	200.0	200.0	0.0	0.0	1	-360.0	360.0;
	214	240	0.001668	0.00542	0.00944	200.0	200.0	200.0	0.0	0.0	1	-360.0	360.0;
	214	271	0.001419	0.004613	0.00803	150.0	150.0	150.0	0.0	0.0	1	-360.0	360.0;
	215	226	0.001414	0.004597	0.00801	250.0	250.0	250.0	0.0	0.0	1	-360.0	360.0;
	215	228	0.001724	0.005604	0.00976	600.0	600.0	600.0	0.0	0.0	1	-360.0	360.0;
	216	236	0.001567	0.005092	0.00887	150.0	150.0	150.0	0.0	0.0	1	-360.0	360.0;
	216	287	0.001502	0.004882	0.0085	150.0	150.0	150.0	0.0	0.0	1	-360.0	360.0;
	217	280	0.00202	0.006564	0.01143	150.0	150.0	150.0	0.0	0.0	1	-360.0	360.0;
	217	289	0.001933	0.006282	0.01094	150.0	150.0	150.0	0.0	0.0	1	-360.0	360.0;
	218	220	0.001521	0.004943	0.00861	200.0	200.0	200.0	0.0	0.0	1	-360.0	360.0;
	218	286	0.001387	0.004507	0.00785	200.0	200.0	200.0	0.0	0.0	1	-360.0	360.0;
	220	224	0.001024	0.003329	0.0058	150.0	150.0	150.0	0.0	0.0	1	-360.0	360.0;
	221	260	0.0014	0.004552	0.00793	400.0	400.0	400.0	0.0	0.0	1	-360.0	360.0;
	221	289	0.002809	0.009128	0.0159	300.0	300.0	300.0	0.0	0.0	1	-360.0	360.0;
	223	240	0.001417	0.004606	0.00802	250.0	250.0	250.0	0.0	0.0	1	-360.0	360.0;
	223	297	0.00191	0.006206	0.01081	500.0	500.0	500.0	0.0	0.0	1	-360.0	360.0;
	224	290	0.001378	0.00448	0.0078	150.0	150.0	150.0	0.0	0.0	1	-360.0	360.0;
	225	277	0.001763	0.005731	0.00998	600.0	600.0	600.0	0.0	0.0	1	-360.0	360.0;
	227	252	0.001273	0.004138	0.00721	150.0	150.0	150.0	0.0	0.0	1	-360.0	360.0;
	227	271	0.001206	0.003921	0.00683	150.0	150.0	150.0	0.0	0.0	1	-360.0	360.0;
	228	235	0.001629	0.005293	0.00922	250.0	250.0	250.0	0.0	0.0	1	-360.0	360.0;
	229	233	0.001146	0.003723	0.00649	150.0	150.0	150.0	0.0	0.0	1	-360.0	360.0;
	229	254	0.001665	0.005412	0.00943	150.0	150.0	150.0	0.0	0.0	1	-360.0	360.0;
	230	235	0.001781	0.00579	0.01008	150.0	150.0	150.0	0.0	0.0	1	-360.0	360.0;
	232	234	0.001315	0.004275	0.00745	150.0	150.0	150.0	0.0	0.0	1	-360.0	360.0;
	233	259	0.001871	0.00608	0.01059	150.0	150.0	150.0	0.0	0.0	1	-360.0	360.0;
	234	283	0.001304	0.004237	0.00738	150.0	150.0	150.0	0.0	0.0	1	-360.0	360.0;
	235	257	0.001452	0.00472	0.00822	250.0	250.0	250.0	0.0	0.0	1	-360.0	360.0;
	236	262	0.001195	0.003882	0.00676	400.0	400.0	400.0	0.0	0.0	1	-360.0	360.0;
	236	299	0.002498	0.00812	0.01414	500.0	500.0	500.0	0.0	0.0	1	-360.0	360.0;
	237	279	0.002034	0.006611	0.01152	400.0	400.0	400.0	0.0	0.0	1	-360.0	360.0;
	239	273	0.002616	0.008502	0.01481	800.0	800.0	800.0	0.0	0.0	1	-360.0	360.0;
	241	255	0.002066	0.006715	0.0117	600.0	600.0	600.0	0.0	0.0	1	-360.0	360.0;
	241	274	0.001616	0.005251	0.00915	1500.0	1500.0	1500.0	0.0	0.0	1	-360.0	360.0;
	242	282	0.001848	0.006007	0.01046	400.0	400.0	400.0	0.0	0.0	1	-360.0	360.0;
	242	290	0.001497	0.004865	0.00848	150.0	150.0	150.0	0.0	0.0	1	-360.0	360.0;
	243	250	0.001625	0.005282	0.0092	250.0	250.0	250.0	0.0	0.0	1	-360.0	360.0;
	243	267	0.001156	0.003756	0.00654	150.0	150.0	150.0	0.0	0.0	1	-360.0	360.0;
	243	279	0.001915	0.006223	0.01084	400.0	400.0	400.0	0.0	0.0	1	-360.0	360.0;
	245	270	0.00125	0.004063	0.00708	150.0	150.0	150.0	0.0	0.0	1	-360.0	360.0;
	245	288	0.001372	0.00446	0.00777	400.0	400.0	400.0	0.0	0.0	1	-360.0	360.0;
	246	289	0.001708	0.005551	0.00967	200.0	200.0	200.0	0.0	0.0	1	-360.0	360.0;
	247	284	0.001867	0.006068	0.01057	150.0	150.0	150.0	0.0	0.0	1	-360.0	360.0;
	247	298	0.00223	0.007248	0.01263	500.0	500.0	500.0	0.0	0.0	1	-360.0	360.0;
	248	262	0.002669	0.008675	0.01511	800.0	800.0	800.0	0.0	0.0	1	-360.0	360.0;
	249	285	0.001667	0.005418	0.00944	250.0	250.0	250.0	0.0	0.0	1	-360.0	360.0;
	249	300	0.001574	0.005115	0.00891	250.0	250.0	250.0	0.0	0.0	1	-360.0	360.0;
	250	298	0.0027	0.008774	0.01528	500.0	500.0	500.0	0.0	0.0	1	-360.0	360.0;
	252	253	0.001696	0.005513	0.0096	150.0	150.0	150.0	0.0	0.0	1	-360.0	360.0;
	257	264	0.001442	0.004686	0.00816	500.0	500.0	500.0	0.0	0.0	1	-360.0	360.0;
	258	270	0.001907	0.006197	0.01079	150.0	150.0	150.0	0.0	0.0	1	-360.0	360.0;
	261	266	0.001254	0.004075	0.0071	600.0	600.0	600.0	0.0	0.0	1	-360.0	360.0;
	261	278	0.001675	0.005443	0.00948	800.0	800.0	800.0	0.0	0.0	1	-360.0	360.0;
	263	299	0.002509	0.008153	0.0142	150.0	150.0	150.0	0.0	0.0	1	-360.0	360.0;
	264	288	0.001246	0.004048	0.00705	400.0	400.0	400.0	0.0	0.0	1	-360.0	360.0;
	265	275	0.002805	0.009115	0.01588	600.0	600.0	600.0	0.0	0.0	1	-360.0	360.0;
	266	286	0.00177	0.005752	0.01002	800.0	800.0	800.0	0.0	0.0	1	-360.0	360.0;
	266	293	0.001998	0.006494	0.01131	200.0	200.0	200.0	0.0	0.0	1	-360.0	360.0;
	268	273	0.00181	0.005884	0.01025	300.0	300.0	300.0	0.0	0.0	1	-360.0	360.0;
	272	283	0.001216	0.003953	0.00689	150.0	150.0	150.0	0.0	0.0	1	-360.0	360.0;
	273	300	0.002181	0.007088	0.01235	400.0	400.0	400.0	0.0	0.0	1	-360.0	360.0;
	274	286	0.001709	0.005555	0.00968	800.0	800.0	800.0	0.0	0.0	1	-360.0	360.0;
	276	278	0.001459	0.004742	0.00826	600.0	600.0	600.0	0.0	0.0	1	-360.0	360.0;
	276	297	0.001608	0.005226	0.0091	400.0	400.0	400.0	0.0	0.0	1	-360.0	360.0;
	278	295	0.001658	0.005389	0.00939	150.0	150.0	150.0	0.0	0.0	1	-360.0	360.0;
	6	19	0.000938	0.009377	0.26068	900.0	900.0	900.0	0.0	0.0	1	-360.0	360.0;
	19	31	0.000968	0.009683	0.26922	900.0	900.0	900.0	0.0	0.0	1	-360.0	360.0;
	31	44	0.001065	0.010652	0.29615	900.0	900.0	900.0	0.0	0.0	1	-360.0	360.0;
	44	56	0.000931	0.009313	0.25893	900.0	900.0	900.0	0.0	0.0	1	-360.0	360.0;
	56	69	0.000932	0.009319	0.25908	900.0	900.0	900.0	0.0	0.0	1	-360.0	360.0;
	69	81	0.000932	0.009318	0.25906	900.0	900.0	900.0	0.0	0.0	1	-360.0	360.0;
	81	94	0.000952	0.009517	0.26459	900.0	900.0	900.0	0.0	0.0	1	-360.0	360.0;
	94	106	0.001084	0.010838	0.30133	900.0	900.0	900.0	0.0	0.0	1	-360.0	360.0;
	106	119	0.000996	0.009963	0.27699	900.0	900.0	900.0	0.0	0.0	1	-360.0	360.0;
	119	131	0.000945	0.00945	0.26274	900.0	900.0	900.0	0.0	0.0	1	-360.0	360.0;
	131	144	0.00103	0.010297	0.28628	900.0	900.0	900.0	0.0	0.0	1	-360.0	360.0;
	144	156	0.000968	0.009678	0.26908	900.0	900.0	900.0	0.0	0.0	1	-360.0	360.0;
	156	169	0.000966	0.009659	0.26853	900.0	900.0	900.0	0.0	0.0	1	-360.0	360.0;
	169	181	0.00093	0.009304	0.25866	900.0	900.0	900.0	0.0	0.0	1	-360.0	360.0;
	181	194	0.000947	0.009469	0.26326	900.0	900.0	900.0	0.0	0.0	1	-360.0	360.0;
	194	206	0.000991	0.009909	0.27548	900.0	900.0	900.0	0.0	0.0	1	-360.0	360.0;
	206	219	0.001045	0.010454	0.29065	900.0	900.0	900.0	0.0	0.0	1	-360.0	360.0;
	219	231	0.000931	0.00931	0.25882	900.0	900.0	900.0	0.0	0.0	1	-360.0	360.0;
	231	244	0.000944	0.009436	0.26234	900.0	900.0	900.0	0.0	0.0	1	-360.0	360.0;
	244	256	0.000931	0.009311	0.25887	900.0	900.0	900.0	0.0	0.0	1	-360.0	360.0;
	256	269	0.00095	0.009498	0.26405	900.0	900.0	900.0	0.0	0.0	1	-360.0	360.0;
	269	281	0.001023	0.010225	0.28427	900.0	900.0	900.0	0.0	0.0	1	-360.0	360.0;
	281	294	0.000999	0.009995	0.27787	900.0	900.0	900.0	0.0	0.0	1	-360.0	360.0;
	6	31	0.001277	0.012773	0.3551	900.0	900.0	900.0	0.0	0.0	1	-360.0	360.0;
	44	69	0.00124	0.012399	0.34471	900.0	900.0	900.0	0.0	0.0	1	-360.0	360.0;
	81	106	0.001278	0.012781	0.35533	900.0	900.0	900.0	0.0	0.0	1	-360.0	360.0;
	119	144	0.001261	0.012607	0.35049	900.0	900.0	900.0	0.0	0.0	1	-360.0	360.0;
	156	181	0.001256	0.01256	0.34918	900.0	900.0	900.0	0.0	0.0	1	-360.0	360.0;
	194	219	0.001244	0.012437	0.34578	900.0	900.0	900.0	0.0	0.0	1	-360.0	360.0;
	231	256	0.001248	0.012477	0.34688	900.0	900.0	900.0	0.0	0.0	1	-360.0	360.0;
	269	294	0.001239	0.012387	0.34437	900.0	900.0	900.0	0.0	0.0	1	-360.0	360.0;
	6	8	0.0	0.02	0.0	600.0	600.0	600.0	0.98	0.0	1	-360.0	360.0;
	31	88	0.0	0.02	0.0	400.0	400.0	400.0	0.985	0.0	1	-360.0	360.0;
	56	12	0.0	0.02	0.0	400.0	400.0	400.0	0.97	0.0	1	-360.0	360.0;
	69	89	0.0	0.02	0.0	400.0	400.0	400.0	0.985	0.0	1	-360.0	360.0;
	94	36	0.0	0.02	0.0	600.0	600.0	600.0	0.97	0.0	1	-360.0	360.0;
	119	111	0.0	0.02	0.0	400.0	400.0	400.0	0.96	0.0	1	-360.0	360.0;
	144	173	0.0	0.02	0.0	600.0	600.0	600.0	0.96	0.0	1	-360.0	360.0;
	156	193	0.0	0.02	0.0	800.0	800.0	800.0	0.97	0.0	1	-360.0	360.0;
	181	104	0.0	0.02	0.0	600.0	600.0	600.0	0.97	0.0	1	-360.0	360.0;
	206	291	0.0	0.02	0.0	400.0	400.0	400.0	1.0	0.0	1	-360.0	360.0;
	231	275	0.0	0.02	0.0	400.0	400.0	400.0	0.985	0.0	1	-360.0	360.0;
	244	249	0.0	0.02	0.0	600.0	600.0	600.0	1.0	0.0	1	-360.0	360.0;
	269	300	0.0	0.02	0.0	600.0	600.0	600.0	0.98	0.0	1	-360.0	360.0;
	294	254	0.0	0.02	0.0	600.0	600.0	600.0	1.0	0.0	1	-360.0	360.0;
	43	180	0.004022	0.013071	0.02277	150.0	150.0	150.0	0.0	0.0	1	-360.0	360.0;
	30	179	0.004098	0.013319	0.0232	150.0	150.0	150.0	0.0	0.0	1	-360.0	360.0;
	39	167	0.004254	0.013827	0.02409	150.0	150.0	150.0	0.0	0.0	1	-360.0	360.0;
	104	291	0.003696	0.012012	0.02092	300.0	300.0	300.0	0.0	0.0	1	-360.0	360.0;
	182	263	0.003767	0.012243	0.02133	150.0	150.0	150.0	0.0	0.0	1	-360.0	360.0;
	108	210	0.003921	0.012743	0.0222	400.0	400.0	400.0	0.0	0.0	1	-360.0	360.0;
	37	71	0.001234	0.004012	0.00699	150.0	150.0	150.0	0.0	0.0	1	-360.0	360.0;
	129	186	0.001284	0.004172	0.00727	400.0	400.0	400.0	0.0	0.0	1	-360.0	360.0;
	234	272	0.001329	0.00432	0.00752	150.0	150.0	150.0	0.0	0.0	1	-360.0	360.0;
	220	290	0.001399	0.004548	0.00792	150.0	150.0	150.0	0.0	0.0	1	-360.0	360.0;
	108	147	0.001455	0.004727	0.00823	150.0	150.0	150.0	0.0	0.0	1	-360.0	360.0;
	27	82	0.001476	0.004797	0.00836	150.0	150.0	150.0	0.0	0.0	1	-360.0	360.0;
	120	159	0.001492	0.004848	0.00844	150.0	150.0	150.0	0.0	0.0	1	-360.0	360.0;
	214	227	0.001506	0.004894	0.00853	150.0	150.0	150.0	0.0	0.0	1	-360.0	360.0;
	232	283	0.001517	0.00493	0.00859	150.0	150.0	150.0	0.0	0.0	1	-360.0	360.0;
	201	245	0.001545	0.00502	0.00874	250.0	250.0	250.0	0.0	0.0	1	-360.0	360.0;
	47	73	0.001555	0.005053	0.0088	300.0	300.0	300.0	0.0	0.0	1	-360.0	360.0;
	110	199	0.001564	0.005084	0.00886	150.0	150.0	150.0	0.0	0.0	1	-360.0	360.0;
	71	84	0.001566	0.005088	0.00886	150.0	150.0	150.0	0.0	0.0	1	-360.0	360.0;
	34	75	0.001583	0.005146	0.00896	150.0	150.0	150.0	0.0	0.0	1	-360.0	360.0;
	270	288	0.001594	0.005179	0.00902	300.0	300.0	300.0	0.0	0.0	1	-360.0	360.0;
	124	171	0.001595	0.005184	0.00903	150.0	150.0	150.0	0.0	0.0	1	-360.0	360.0;
	46	74	0.0016	0.0052	0.00906	150.0	150.0	150.0	0.0	0.0	1	-360.0	360.0;
	236	287	0.001606	0.00522	0.00909	150.0	150.0	150.0	0.0	0.0	1	-360.0	360.0;
	101	193	0.001629	0.005295	0.00922	300.0	300.0	300.0	0.0	0.0	1	-360.0	360.0;
	213	297	0.001636	0.005316	0.00926	150.0	150.0	150.0	0.0	0.0	1	-360.0	360.0;
	40	63	0.001637	0.005321	0.00927	150.0	150.0	150.0	0.0	0.0	1	-360.0	360.0;
	216	262	0.001639	0.005327	0.00928	200.0	200.0	200.0	0.0	0.0	1	-360.0	360.0;
	7	37	0.001674	0.00544	0.00948	150.0	150.0	150.0	0.0	0.0	1	-360.0	360.0;
	250	267	0.001678	0.005453	0.0095	150.0	150.0	150.0	0.0	0.0	1	-360.0	360.0;
	152	171	0.001684	0.005474	0.00954	150.0	150.0	150.0	0.0	0.0	1	-360.0	360.0;
	135	151	0.001695	0.005508	0.00959	150.0	150.0	150.0	0.0	0.0	1	-360.0	360.0;
	46	90	0.001724	0.005603	0.00976	150.0	150.0	150.0	0.0	0.0	1	-360.0	360.0;
	203	235	0.001742	0.005662	0.00986	150.0	150.0	150.0	0.0	0.0	1	-360.0	360.0;
	214	252	0.001745	0.005672	0.00988	150.0	150.0	150.0	0.0	0.0	1	-360.0	360.0;
	203	257	0.001759	0.005715	0.00996	250.0	250.0	250.0	0.0	0.0	1	-360.0	360.0;
	40	42	0.001764	0.005732	0.00998	150.0	150.0	150.0	0.0	0.0	1	-360.0	360.0;
	54	95	0.001769	0.005748	0.01001	150.0	150.0	150.0	0.0	0.0	1	-360.0	360.0;
	140	185	0.001777	0.005774	0.01006	150.0	150.0	150.0	0.0	0.0	1	-360.0	360.0;
	136	189	0.001779	0.005781	0.01007	200.0	200.0	200.0	0.0	0.0	1	-360.0	360.0;
	85	93	0.001782	0.00579	0.01009	150.0	150.0	150.0	0.0	0.0	1	-360.0	360.0;
	26	35	0.001793	0.005828	0.01015	400.0	400.0	400.0	0.0	0.0	1	-360.0	360.0;
	157	199	0.001802	0.005855	0.0102	200.0	200.0	200.0	0.0	0.0	1	-360.0	360.0;
	233	254	0.001804	0.005862	0.01021	150.0	150.0	150.0	0.0	0.0	1	-360.0	360.0;
	218	290	0.001816	0.005902	0.01028	250.0	250.0	250.0	0.0	0.0	1	-360.0	360.0;
	1	64	0.001828	0.005941	0.01035	300.0	300.0	300.0	0.0	0.0	1	-360.0	360.0;
	227	253	0.001832	0.005953	0.01037	150.0	150.0	150.0	0.0	0.0	1	-360.0	360.0;
	5	77	0.001833	0.005958	0.01038	150.0	150.0	150.0	0.0	0.0	1	-360.0	360.0;
	8	18	0.001834	0.005962	0.01038	200.0	200.0	200.0	0.0	0.0	1	-360.0	360.0;
	205	288	0.001848	0.006007	0.01046	150.0	150.0	150.0	0.0	0.0	1	-360.0	360.0;
	161	188	0.001913	0.006219	0.01083	200.0	200.0	200.0	0.0	0.0	1	-360.0	360.0;
	207	216	0.001928	0.006265	0.01091	150.0	150.0	150.0	0.0	0.0	1	-360.0	360.0;
	45	47	0.00193	0.006273	0.01093	150.0	150.0	150.0	0.0	0.0	1	-360.0	360.0;
	218	274	0.001933	0.006284	0.01095	500.0	500.0	500.0	0.0	0.0	1	-360.0	360.0;
	282	290	0.001944	0.006317	0.011	400.0	400.0	400.0	0.0	0.0	1	-360.0	360.0;
	49	95	0.001946	0.006325	0.01102	300.0	300.0	300.0	0.0	0.0	1	-360.0	360.0;
	104	186	0.001959	0.006368	0.01109	800.0	800.0	800.0	0.0	0.0	1	-360.0	360.0;
	123	145	0.00196	0.006371	0.0111	150.0	150.0	150.0	0.0	0.0	1	-360.0	360.0;
	132	192	0.001964	0.006383	0.01112	300.0	300.0	300.0	0.0	0.0	1	-360.0	360.0;
	8	61	0.002283	0.007418	0.01292	250.0	250.0	250.0	0.0	0.0	1	-360.0	360.0;
	12	15	0.002665	0.00866	0.01508	150.0	150.0	150.0	0.0	0.0	1	-360.0	360.0;
	36	43	0.002246	0.007301	0.01272	200.0	200.0	200.0	0.0	0.0	1	-360.0	360.0;
	36	100	0.00237	0.007703	0.01342	200.0	200.0	200.0	0.0	0.0	1	-360.0	360.0;
	88	96	0.002042	0.006637	0.01156	150.0	150.0	150.0	0.0	0.0	1	-360.0	360.0;
	17	89	0.002123	0.006899	0.01202	200.0	200.0	200.0	0.0	0.0	1	-360.0	360.0;
	72	89	0.002372	0.00771	0.01343	150.0	150.0	150.0	0.0	0.0	1	-360.0	360.0;
	111	121	0.003192	0.010373	0.01807	150.0	150.0	150.0	0.0	0.0	1	-360.0	360.0;
	111	173	0.003291	0.010695	0.01863	150.0	150.0	150.0	0.0	0.0	1	-360.0	360.0;
	166	173	0.003506	0.011396	0.01985	150.0	150.0	150.0	0.0	0.0	1	-360.0	360.0;
	249	272	0.0023	0.007476	0.01302	250.0	250.0	250.0	0.0	0.0	1	-360.0	360.0;
	225	254	0.002392	0.007774	0.01354	800.0	800.0	800.0	0.0	0.0	1	-360.0	360.0;
	275	291	0.00328	0.01066	0.01857	150.0	150.0	150.0	0.0	0.0	1	-360.0	360.0;
	285	300	0.002093	0.006802	0.01185	150.0	150.0	150.0	0.0	0.0	1	-360.0	360.0;
	86	97	0.002006	0.006521	0.01136	200.0	200.0	200.0	0.0	0.0	1	-360.0	360.0;
	105	183	0.00223	0.007247	0.01262	150.0	150.0	150.0	0.0	0.0	1	-360.0	360.0;
	107	197	0.002483	0.008071	0.01406	200.0	200.0	200.0	0.0	0.0	1	-360.0	360.0;
	122	150	0.002271	0.007381	0.01286	250.0	250.0	250.0	0.0	0.0	1	-360.0	360.0;
	112	127	0.00214	0.006954	0.01211	200.0	200.0	200.0	0.0	0.0	1	-360.0	360.0;
	133	192	0.002384	0.007748	0.0135	150.0	150.0	150.0	0.0	0.0	1	-360.0	360.0;
	102	139	0.001892	0.006147	0.01071	150.0	150.0	150.0	0.0	0.0	1	-360.0	360.0;
	134	154	0.002339	0.007603	0.01324	150.0	150.0	150.0	0.0	0.0	1	-360.0	360.0;
	175	178	0.00285	0.009263	0.01613	150.0	150.0	150.0	0.0	0.0	1	-360.0	360.0;
	166	184	0.002764	0.008983	0.01565	150.0	150.0	150.0	0.0	0.0	1	-360.0	360.0;
	104	190	0.002117	0.006879	0.01198	150.0	150.0	150.0	0.0	0.0	1	-360.0	360.0;
	135	200	0.002092	0.006798	0.01184	150.0	150.0	150.0	0.0	0.0	1	-360.0	360.0;
	222	297	0.001967	0.006392	0.01113	150.0	150.0	150.0	0.0	0.0	1	-360.0	360.0;
	226	248	0.002011	0.006535	0.01138	250.0	250.0	250.0	0.0	0.0	1	-360.0	360.0;
	228	230	0.00211	0.006858	0.01195	150.0	150.0	150.0	0.0	0.0	1	-360.0	360.0;
	237	295	0.002546	0.008273	0.01441	200.0	200.0	200.0	0.0	0.0	1	-360.0	360.0;
	246	280	0.002228	0.00724	0.01261	150.0	150.0	150.0	0.0	0.0	1	-360.0	360.0;
	251	265	0.002246	0.0073	0.01272	600.0	600.0	600.0	0.0	0.0	1	-360.0	360.0;
	212	255	0.002185	0.007103	0.01237	150.0	150.0	150.0	0.0	0.0	1	-360.0	360.0;
	245	258	0.002063	0.006703	0.01168	150.0	150.0	150.0	0.0	0.0	1	-360.0	360.0;
	229	259	0.002024	0.006578	0.01146	150.0	150.0	150.0	0.0	0.0	1	-360.0	360.0;
	268	285	0.002258	0.00734	0.01279	200.0	200.0	200.0	0.0	0.0	1	-360.0	360.0;
	238	284	0.002634	0.008561	0.01491	400.0	400.0	400.0	0.0	0.0	1	-360.0	360.0;
	292	296	0.002303	0.007486	0.01304	150.0	150.0	150.0	0.0	0.0	1	-360.0	360.0;
	261	293	0.002106	0.006843	0.01192	150.0	150.0	150.0	0.0	0.0	1	-360.0	360.0;
	282	296	0.002468	0.008022	0.01397	150.0	150.0	150.0	0.0	0.0	1	-360.0	360.0;
	98	35	0.002034	0.006611	0.01152	500.0	500.0	500.0	0.0	0.0	1	-360.0	360.0;
	209	212	0.00189	0.006142	0.0107	500.0	500.0	500.0	0.0	0.0	1	-360.0	360.0;
	210	251	0.003375	0.01097	0.01911	600.0	600.0	600.0	0.0	0.0	1	-360.0	360.0;
	238	247	0.002152	0.006994	0.01218	500.0	500.0	500.0	0.0	0.0	1	-360.0	360.0;
	239	225	0.002107	0.006849	0.01193	150.0	150.0	150.0	0.0	0.0	1	-360.0	360.0;
	241	212	0.002123	0.006901	0.01202	800.0	800.0	800.0	0.0	0.0	1	-360.0	360.0;
	248	215	0.001982	0.006441	0.01122	400.0	400.0	400.0	0.0	0.0	1	-360.0	360.0;
	255	277	0.002189	0.007115	0.01239	400.0	400.0	400.0	0.0	0.0	1	-360.0	360.0;
	284	299	0.002703	0.008785	0.0153	300.0	300.0	300.0	0.0	0.0	1	-360.0	360.0;
];

%% bus names (imported with matpower_import.apply_bus_names)
mpc.bus_name = {
	'Ginsterfurt_220';
	'Haselmoos_220';
	'Tannenbrueck_220';
	'Blauhagen_220';
	'Freiweiler_220';
	'Blaustadt_380';
	'Warmhof_220';
	'Lindbach_220';
	'Niederborn_220';
	'Eichburg_220';
	'Sandloh_220';
	'Birkhagen_220';
	'Wiesenwang_220';
	'Binsenloh_220';
	'Erlenried_220';
	'Kiesweiler_220';
	'Kiefernstein_220';
	'Goldau_220';
	'Hainmoos_380';
	'Wacholderhagen_220';
	'Ostach_220';
	'Blaufeld_220';
	'Warmborn_220';
	'Kieskirchen_220';
	'Kaltheim_220';
	'Steinsee_220';
	'Haselried_220';
	'Sandstadt_220';
	'Breithausen_220';
	'Altau_220';
	'Ahornkirchen_380';
	'Dornried_220';
	'Neubach_220';
	'Alttal_220';
	'Wiesenau_220';
	'Nordheim_220';
	'Fernborn_220';
	'Haselroda_220';
	'Ginsterach_220';
	'Kleinbrueck_220';
	'Binsenried_220';
	'Kurzbeuren_220';
	'Kiesloh_220';
	'Mooringen_380';
	'Steinach_220';
	'Flachwalde_220';
	'Talhof_220';
	'Fernsee_220';
	'Fernstadt_220';
	'Gruenried_220';
	'Talborn_220';
	'Hollertal_220';
	'Kleinburg_220';
	'Fichtenleben_220';
	'Birkfurt_220';
	'Kaltwang_380';
	'Oberdorf_220';
	'Gruendorf_220';
	'Kurzwang_220';
	'Alteck_220';
	'Hollerwang_220';
	'Lindried_220';
	'Ahorndorf_220';
	'Wacholderbeuren_220';
	'Freiberg_220';
	'Grossleben_220';
	'Oststein_220';
	'Ginstereck_220';
	'Buchstein_380';
	'Sandach_220';
	'Fernberg_220';
	'Flachsach_220';
	'Lindhof_220';
	'Warmwang_220';
	'Ginsterhausen_220';
	'Flachach_220';
	'Neuhagen_220';
	'Heidehausen_220';
	'Ostkirchen_220';
	'Birkach_220';
	'Kleinbeuren_380';
	'Hainroda_220';
	'Bacheck_220';
	'Sandbrueck_220';
	'Talhausen_220';
	'Rotberg_220';
	'Silberwang_220';
	'Altach_220';
	'Steinbeuren_220';
	'Unterbrueck_220';
	'Steinburg_220';
	'Goldfeld_220';
	'Waldhagen_220';
	'Flachhausen_380';
	'Niederingen_220';
	'Warmdorf_220';
	'Nahdorf_220';
	'Haselbach_220';
	'Ostwang_220';
	'Seehof_220';
	'Kleeberg_220';
	'Kleeach_220';
	'Bergingen_220';
	'Haselkirchen_220';
	'Wiesenburg_220';
	'Wiesenberg_380';
	'Kaltdorf_220';
	'Kurzleben_220';
	'Erlenau_220';
	'Ahornau_220';
	'Kurzau_220';
	'Dorningen_220';
	'Langborn_220';
	'Kiesach_220';
	'Nahkirchen_220';
	'Ulmenach_220';
	'Tieffurt_220';
	'Westhausen_220';
	'Nahweiler_380';
	'Talfeld_220';
	'Ginsteringen_220';
	'Schilfstein_220';
	'Kiefernhausen_220';
	'Niederweiler_220';
	'Sandingen_220';
	'Ulmenstadt_220';
	'Ahornsee_220';
	'Schilfwalde_220';
	'Grosswang_220';
	'Kiesbeuren_220';
	'Flachsburg_380';
	'Wacholderingen_220';
	'Erlenbach_220';
	'Blauborn_220';
	'Fichtenfurt_220';
	'Hanfroda_220';
	'Nahried_220';
	'Lindingen_220';
	'Neufeld_220';
	'Fichtenach_220';
	'Kurzfurt_220';
	'Neutal_220';
	'Grosstal_220';
	'Eichingen_380';
	'Eichfurt_220';
	'Hainhof_220';
	'Breitau_220';
	'Nahingen_220';
	'Hollerach_220';
	'Ulmenstein_220';
	'Langleben_220';
	'Weissheim_220';
	'Fernmoos_220';
	'Hochtal_220';
	'Kiesbrueck_220';
	'Bergfurt_380';
	'Ahorntal_220';
	'Fichtenberg_220';
	'Freiach_220';
	'Eicheck_220';
	'Nahfurt_220';
	'Warmstadt_220';
	'Hainborn_220';
	'Schilfdorf_220';
	'Hochfurt_220';
	'Wiesensee_220';
	'Nahleben_220';
	'Fernhagen_220';
	'Untersee_380';
	'Waldburg_220';
	'Kalthof_220';
	'Feldfeld_220';
	'Hollerau_220';
	'Fichtenbach_220';
	'Flachssee_220';
	'Bergbrueck_220';
	'Bergbach_220';
	'Hollerborn_220';
	'Niederhof_220';
	'Espenheim_220';
	'Haselau_380';
	'Seeberg_220';
	'Lindhagen_220';
	'Breitingen_220';
	'Ginsterried_220';
	'Sandmoos_220';
	'Blaufurt_220';
	'Espenhagen_220';
	'Untertal_220';
	'Hanfwalde_220';
	'Buchbeuren_220';
	'Erlenbeuren_220';
	'Niederroda_220';
	'Rotau_380';
	'Kaltsee_220';
	'Buchbrueck_220';
	'Rotsee_220';
	'Birkhof_220';
	'Kiesfeld_220';
	'Talheim_220';
	'Sandleben_220';
	'Warmfeld_220';
	'Eichfeld_220';
	'Blaukirchen_220';
	'Lindberg_220';
	'Nahhof_380';
	'Binsenbeuren_220';
	'Gruenbach_220';
	'Hainstein_220';
	'Kleinborn_220';
	'Nordried_220';
	'Breitleben_220';
	'Hanfhausen_220';
	'Espenbrueck_220';
	'Altdorf_220';
	'Silberborn_220';
	'Wiesenheim_220';
	'Gruenwalde_220';
	'Fichtenweiler_380';
	'Flachswalde_220';
	'Dornbeuren_220';
	'Steinroda_220';
	'Moorweiler_220';
	'Kurzroda_220';
	'Bachburg_220';
	'Kurzmoos_220';
	'Hochau_220';
	'Oberheim_220';
	'Kaltried_220';
	'Hainbach_220';
	'Silberbach_380';
	'Binsenstein_220';
	'Steinfeld_220';
	'Suedheim_220';
	'Flachmoos_220';
	'Freiwang_220';
	'Tiefloh_220';
	'Buchheim_220';
	'Rotroda_220';
	'Goldmoos_220';
	'Tannenach_220';
	'Breitburg_220';
	'Fernstein_220';
	'Eichbrueck_380';
	'Goldach_220';
	'Altberg_220';
	'Nahhagen_220';
	'Haselbrueck_220';
	'Moorwang_220';
	'Hochwang_220';
	'Tiefwang_220';
	'Heidedorf_220';
	'Feldbeuren_220';
	'Ostburg_220';
	'Langberg_220';
	'Weissfeld_380';
	'Moorborn_220';
	'Untereck_220';
	'Moorheim_220';
	'Westwang_220';
	'Erlenstein_220';
	'Birkhausen_220';
	'Silberau_220';
	'Nordhausen_220';
	'Dornach_220';
	'Steinweiler_220';
	'Kleestadt_220';
	'Seestadt_220';
	'Flachswang_380';
	'Breitkirchen_220';
	'Erlenhof_220';
	'Flachbrueck_220';
	'Eichwalde_220';
	'Hochbach_220';
	'Steinmoos_220';
	'Kurzingen_220';
	'Gruenstein_220';
	'Hanfleben_220';
	'Binsenfurt_220';
	'Feldfurt_220';
	'Suedweiler_380';
	'Rotheim_220';
	'Talbeuren_220';
	'Ahornroda_220';
	'Osthof_220';
	'Tannenloh_220';
	'Flachsee_220';
	'Ostmoos_220';
	'Langbeuren_220';
	'Westroda_220';
	'Niederhausen_220';
	'Ulmenbeuren_220';
	'Birkbach_220';
	'Bachstadt_380';
	'Langwang_220';
	'Bergach_220';
	'Kaltbach_220';
	'Wiesental_220';
	'Flachsborn_220';
	'Seeeck_220';
};